Version 4
SHEET 1 880 1096
SYMBOL ExtendedSchockleyDiode -320 -128 R0
SYMATTR InstName D
SYMBOL ExtendedSchockleyDiodeAntiParallel -352 16 R0
SYMATTR InstName Dap
SYMBOL ExtendedSchockleyDiodeSeries -320 160 R0
SYMATTR InstName Dser
SYMBOL IdealOpamp -288 384 R0
SYMATTR InstName OA
SYMBOL InverseLogarithmicPotentiometer -288 560 R0
SYMATTR InstName Pilog
SYMBOL LinearPotentiometer -288 784 R0
SYMATTR InstName Plin
SYMBOL LogarithmicPotentiometer -288 1008 R0
SYMATTR InstName Plog
TEXT -200 -104 Left 2 ;EXTENDED SCHOCKLEY DIODE
TEXT -160 40 Left 2 ;EXTENDED SCHOCKLEY DIODES (n ON EACH SIDE) IN ANTIPARALLEL CONFIGURATION
TEXT -216 216 Left 2 ;EXTENDED SCHOCKLEY DIODES (n) IN SERIES CONFIGURATION
TEXT -200 384 Left 2 ;IDEAL OPERATIONAL AMPLLIFIER
TEXT -160 560 Left 2 ;INVERSE LOGARITHMIC POTENTIOMETER
TEXT -168 776 Left 2 ;LINEAR POTENTIOMETER
TEXT -152 1008 Left 2 ;LOGARITHMIC POTENTIOMETER
