Version 4
SHEET 1 2452 692
WIRE 784 -560 720 -560
WIRE 1088 -560 864 -560
WIRE 1088 -512 1088 -560
WIRE 720 -448 720 -560
WIRE 784 -448 720 -448
WIRE 944 -448 864 -448
WIRE 144 -336 16 -336
WIRE 416 -336 304 -336
WIRE 560 -336 480 -336
WIRE 720 -336 720 -448
WIRE 720 -336 640 -336
WIRE 800 -336 720 -336
WIRE -352 -320 -352 -368
WIRE 944 -320 944 -448
WIRE 944 -320 864 -320
WIRE 1088 -320 1088 -432
WIRE 1088 -320 944 -320
WIRE 800 -304 720 -304
WIRE 944 -208 944 -320
WIRE -352 -176 -352 -256
WIRE -192 -176 -352 -176
WIRE 16 -176 16 -336
WIRE 16 -176 -112 -176
WIRE 96 -176 16 -176
WIRE 224 -176 224 -256
WIRE 224 -176 160 -176
WIRE -352 -48 -352 -176
WIRE -288 -48 -352 -48
WIRE -128 -48 -224 -48
WIRE 16 -48 16 -176
WIRE 16 -48 -48 -48
WIRE 944 16 944 -128
WIRE 16 48 16 -48
WIRE 80 48 16 48
WIRE 224 64 224 -176
WIRE 224 64 144 64
WIRE -192 80 -432 80
WIRE 16 80 -128 80
WIRE 80 80 16 80
WIRE 1072 96 1024 96
WIRE 1232 96 1152 96
WIRE 1360 96 1232 96
WIRE 1632 112 1632 48
WIRE -432 160 -432 80
WIRE 1360 192 1360 96
WIRE 16 208 16 80
WIRE 1232 208 1232 96
WIRE 1488 272 1440 272
WIRE 1632 272 1632 192
WIRE 1632 272 1552 272
WIRE 944 304 944 176
WIRE -432 336 -432 240
WIRE 16 432 16 288
WIRE 16 432 -64 432
WIRE 720 432 720 -304
WIRE 720 432 16 432
WIRE 944 432 944 368
WIRE 944 432 720 432
WIRE 1232 432 1232 272
WIRE 1232 432 944 432
WIRE 1360 432 1360 352
WIRE 1360 432 1232 432
FLAG -432 336 0
FLAG -352 -368 0
FLAG 1632 48 0
FLAG -64 432 0
SYMBOL voltage -432 144 R0
SYMATTR InstName Vin
SYMATTR Value SINE(0 0.2 250)
SYMBOL cap -128 64 R90
WINDOW 0 0 32 VBottom 2
WINDOW 3 32 32 VTop 2
SYMATTR InstName C1
SYMATTR Value 0.01µ
SYMBOL IdealOpamp 112 64 R0
SYMATTR InstName OA1
SYMBOL res -96 -192 R90
WINDOW 0 0 56 VBottom 2
WINDOW 3 32 56 VTop 2
SYMATTR InstName R2
SYMATTR Value 4.7k
SYMBOL res -32 -64 R90
WINDOW 0 0 56 VBottom 2
WINDOW 3 32 56 VTop 2
SYMATTR InstName R3
SYMATTR Value 3.3k
SYMBOL cap -224 -64 R90
WINDOW 0 0 32 VBottom 2
WINDOW 3 32 32 VTop 2
SYMATTR InstName C2
SYMATTR Value 0.01µ
SYMBOL cap -368 -320 R0
SYMATTR InstName C3
SYMATTR Value 0.01µ
SYMBOL cap 96 -160 R270
WINDOW 0 32 32 VTop 2
WINDOW 3 0 32 VBottom 2
SYMATTR InstName C4
SYMATTR Value 47p
SYMBOL res 0 192 R0
SYMATTR InstName R1
SYMATTR Value 1Meg
SYMBOL cap 480 -352 R90
WINDOW 0 0 32 VBottom 2
WINDOW 3 32 32 VTop 2
SYMATTR InstName C5
SYMATTR Value 0.1µ
SYMBOL res 656 -352 R90
WINDOW 0 0 56 VBottom 2
WINDOW 3 32 56 VTop 2
SYMATTR InstName R4
SYMATTR Value 10k
SYMBOL IdealOpamp 832 -320 R0
SYMATTR InstName OA2
SYMBOL res 880 -464 R90
WINDOW 0 0 56 VBottom 2
WINDOW 3 32 56 VTop 2
SYMATTR InstName R5
SYMATTR Value 220k
SYMBOL res 880 -576 R90
WINDOW 0 0 56 VBottom 2
WINDOW 3 32 56 VTop 2
SYMATTR InstName R6
SYMATTR Value 6.8k
SYMBOL res 928 -224 R0
SYMATTR InstName R7
SYMATTR Value 1k
SYMBOL cap 928 304 R0
SYMATTR InstName C6
SYMATTR Value 0.01µ
SYMBOL res 1168 80 R90
WINDOW 0 0 56 VBottom 2
WINDOW 3 32 56 VTop 2
SYMATTR InstName R8
SYMATTR Value 6.8k
SYMBOL cap 1248 208 M0
SYMATTR InstName C7
SYMATTR Value 0.01µ
SYMBOL cap 1552 256 R90
WINDOW 0 0 32 VBottom 2
WINDOW 3 32 32 VTop 2
SYMATTR InstName C8
SYMATTR Value 0.1µ
SYMBOL res 1648 208 R180
WINDOW 0 36 76 Left 2
WINDOW 3 36 40 Left 2
SYMATTR InstName R9
SYMATTR Value 1.5Meg
SYMBOL LinearPotentiometer 224 -336 M90
WINDOW 0 62 77 VLeft 2
SYMATTR InstName Plin1
SYMATTR SpiceLine Rp=100k x=0.5
SYMBOL LinearPotentiometer 944 96 M180
SYMATTR InstName Plin2
SYMATTR SpiceLine Rp=25k x=0.5
SYMBOL LogarithmicPotentiometer 1360 272 M180
SYMATTR InstName Plog3
SYMATTR SpiceLine Rp=100k x=0.5
SYMBOL ExtendedSchockleyDiodeAntiParallel 1040 -496 R0
SYMATTR InstName Dap1
SYMATTR SpiceLine Is=4.352n eta=1.905 Vth=25.8563m Rs=1m Rp=1Meg n=2
TEXT 88 -560 Left 2 !.tran 5s uic
TEXT 88 -528 Left 2 !.wave "MBB_LTspice.wav" 16 48k V(n016)
