Version 4
SHEET 1 3448 864
WIRE 2272 -208 1968 -208
WIRE 2560 -208 2336 -208
WIRE 2816 -208 2560 -208
WIRE 2560 -144 2560 -208
WIRE 2816 -128 2816 -208
WIRE 1968 -64 1968 -208
WIRE 1968 -64 1760 -64
WIRE 3040 -48 2896 -48
WIRE 2560 0 2560 -80
WIRE -240 16 -320 16
WIRE -96 16 -176 16
WIRE 64 16 -16 16
WIRE 304 16 64 16
WIRE 528 16 464 16
WIRE 1968 32 1968 -64
WIRE 3040 32 3040 -48
WIRE 1184 64 1088 64
WIRE 1344 64 1248 64
WIRE 3216 112 3120 112
WIRE 3376 112 3296 112
WIRE 2560 144 2560 80
WIRE 3376 192 3376 112
WIRE 64 208 64 16
WIRE 192 208 64 208
WIRE 384 208 384 96
WIRE 384 208 256 208
WIRE 1088 224 1088 64
WIRE 1168 224 1088 224
WIRE 1344 224 1344 64
WIRE 1344 224 1248 224
WIRE 1968 224 1968 112
WIRE 2176 224 1968 224
WIRE 2320 224 2176 224
WIRE 2480 224 2384 224
WIRE 2176 288 2176 224
WIRE 3040 320 3040 192
WIRE 3376 320 3376 256
WIRE 2560 336 2560 304
WIRE 1968 352 1968 224
WIRE 64 368 64 208
WIRE 192 368 64 368
WIRE 384 384 384 208
WIRE 384 384 256 384
WIRE 528 384 528 16
WIRE 624 384 528 384
WIRE 768 384 688 384
WIRE 912 384 848 384
WIRE 1088 384 1088 224
WIRE 1088 384 976 384
WIRE 1168 384 1088 384
WIRE -208 400 -480 400
WIRE -96 400 -208 400
WIRE 64 400 -32 400
WIRE 192 400 64 400
WIRE 1344 400 1344 224
WIRE 1344 400 1232 400
WIRE 1408 400 1344 400
WIRE 1568 400 1472 400
WIRE 1760 400 1760 -64
WIRE 1760 400 1648 400
WIRE 1168 416 1088 416
WIRE 2176 416 2176 368
WIRE 2816 416 2816 32
WIRE 2816 416 2176 416
WIRE 2176 448 2176 416
WIRE 1760 480 1760 400
WIRE 2816 480 2816 416
WIRE -480 496 -480 400
WIRE -208 496 -208 400
WIRE 64 496 64 400
WIRE 1968 496 1968 416
WIRE 2048 496 1968 496
WIRE 2048 528 2048 496
WIRE 2096 528 2048 528
WIRE 1968 560 1968 496
WIRE -480 672 -480 576
WIRE -208 672 -208 576
WIRE 64 672 64 576
WIRE 1088 672 1088 416
WIRE 1088 672 64 672
WIRE 1184 672 1088 672
WIRE 1344 672 1264 672
WIRE 1760 672 1760 560
WIRE 1968 704 1968 640
WIRE 2176 704 2176 608
WIRE 2816 704 2816 544
FLAG -320 16 0
FLAG -480 672 0
FLAG -208 672 0
FLAG 1760 672 0
FLAG 1968 704 0
FLAG 2560 336 0
FLAG 2176 704 0
FLAG 2816 704 0
FLAG 3040 320 0
FLAG 3376 320 0
FLAG 1344 672 0
SYMBOL voltage -480 480 R0
SYMATTR InstName Vin
SYMATTR Value SINE(0 0.2 250)
SYMBOL res -224 480 R0
SYMATTR InstName R1
SYMATTR Value 2.2Meg
SYMBOL cap -96 384 M90
WINDOW 0 0 32 VBottom 2
WINDOW 3 32 32 VTop 2
SYMATTR InstName C1
SYMATTR Value 9.6n
SYMBOL res 48 480 R0
SYMATTR InstName R2
SYMATTR Value 1Meg
SYMBOL IdealOpamp 224 384 R0
SYMATTR InstName OA1
SYMBOL LinearPotentiometer 384 16 M90
WINDOW 0 62 78 VLeft 2
SYMATTR InstName Plin1
SYMATTR SpiceLine Rp=100k x=0.5
SYMBOL cap 256 192 R90
WINDOW 0 0 32 VBottom 2
WINDOW 3 32 32 VTop 2
SYMATTR InstName C2
SYMATTR Value 120p
SYMBOL res 0 0 R90
WINDOW 0 0 56 VBottom 2
WINDOW 3 32 56 VTop 2
SYMATTR InstName R3
SYMATTR Value 2.2k
SYMBOL cap -176 0 R90
WINDOW 0 0 32 VBottom 2
WINDOW 3 32 32 VTop 2
SYMATTR InstName C3
SYMATTR Value 100n
SYMBOL cap 688 368 R90
WINDOW 0 0 32 VBottom 2
WINDOW 3 32 32 VTop 2
SYMATTR InstName C4
SYMATTR Value 220n
SYMBOL res 864 368 R90
WINDOW 0 0 56 VBottom 2
WINDOW 3 32 56 VTop 2
SYMATTR InstName R4
SYMATTR Value 10k
SYMBOL cap 976 368 R90
WINDOW 0 0 32 VBottom 2
WINDOW 3 32 32 VTop 2
SYMATTR InstName C5
SYMATTR Value 100n
SYMBOL IdealOpamp 1200 400 R0
SYMATTR InstName OA2
SYMBOL res 1264 208 R90
WINDOW 0 0 56 VBottom 2
WINDOW 3 32 56 VTop 2
SYMATTR InstName R5
SYMATTR Value 680k
SYMBOL cap 1248 48 R90
WINDOW 0 0 32 VBottom 2
WINDOW 3 32 32 VTop 2
SYMATTR InstName C6
SYMATTR Value 220p
SYMBOL cap 1472 384 R90
WINDOW 0 0 32 VBottom 2
WINDOW 3 32 32 VTop 2
SYMATTR InstName C7
SYMATTR Value 220n
SYMBOL res 1664 384 R90
WINDOW 0 0 56 VBottom 2
WINDOW 3 32 56 VTop 2
SYMATTR InstName R6
SYMATTR Value 1k
SYMBOL res 1952 16 R0
SYMATTR InstName R7
SYMATTR Value 1.5k
SYMBOL cap 1952 352 R0
SYMATTR InstName C8
SYMATTR Value 100n
SYMBOL res 1952 544 R0
SYMATTR InstName R8
SYMATTR Value 680
SYMBOL res 2160 272 R0
SYMATTR InstName R9
SYMATTR Value 680
SYMBOL cap 2384 208 R90
WINDOW 0 0 32 VBottom 2
WINDOW 3 32 32 VTop 2
SYMATTR InstName C10
SYMATTR Value 220n
SYMBOL res 2544 -16 R0
SYMATTR InstName R10
SYMATTR Value 100
SYMBOL cap 2336 -224 R90
WINDOW 0 0 32 VBottom 2
WINDOW 3 32 32 VTop 2
SYMATTR InstName C9
SYMATTR Value 4.7n
SYMBOL cap 2576 -80 R180
WINDOW 0 24 56 Left 2
WINDOW 3 24 8 Left 2
SYMATTR InstName C11
SYMATTR Value 10n
SYMBOL cap 2800 480 R0
SYMATTR InstName C12
SYMATTR Value 68n
SYMBOL res 3312 96 R90
WINDOW 0 0 56 VBottom 2
WINDOW 3 32 56 VTop 2
SYMATTR InstName R12
SYMATTR Value 22k
SYMBOL cap 3360 192 R0
SYMATTR InstName C13
SYMATTR Value 470p
SYMBOL voltage 1168 672 R270
WINDOW 0 32 56 VTop 2
WINDOW 3 -32 56 VBottom 2
SYMATTR InstName V1
SYMATTR Value 4.5
SYMBOL ExtendedSchockleyDiodeAntiParallel 1712 496 R0
SYMATTR InstName Dap1
SYMATTR SpiceLine Is=0.622p eta=3.139 Vth=25.8563m Rs=7.9 Rp=0.8T n=1
SYMBOL LogarithmicPotentiometer 2176 528 M0
SYMATTR InstName Plog2
SYMATTR SpiceLine Rp=10k x=0.5
SYMBOL LogarithmicPotentiometer 2560 224 R180
SYMATTR InstName Plog3
SYMATTR SpiceLine Rp=10k x=0.5
SYMBOL LogarithmicPotentiometer 2816 -48 M180
SYMATTR InstName Plog4
SYMATTR SpiceLine Rp=10k x=0.5
SYMBOL LinearPotentiometer 3040 112 M180
SYMATTR InstName Plin5
SYMATTR SpiceLine Rp=100k x=0.5
TEXT 632 -360 Left 2 !.tran 5s uic
TEXT 632 -328 Left 2 !.wave "MTG_LTspice.wav" 16 48k V(n011)
