Version 4
SHEET 1 1684 776
WIRE -16 -256 -160 -256
WIRE 192 -256 64 -256
WIRE 336 -256 192 -256
WIRE 544 -256 336 -256
WIRE -160 -176 -160 -256
WIRE 192 -176 192 -256
WIRE 336 -176 336 -256
WIRE 544 -96 544 -256
WIRE -160 -16 -160 -96
WIRE 192 -16 192 -96
WIRE 192 -16 -160 -16
WIRE 336 -16 336 -112
WIRE 336 -16 192 -16
WIRE -160 16 -160 -16
WIRE -160 128 -304 128
WIRE 16 128 -160 128
WIRE 160 128 16 128
WIRE 336 128 224 128
WIRE 544 128 544 -16
WIRE 544 128 416 128
WIRE 704 128 544 128
WIRE 832 144 768 144
WIRE 880 144 832 144
WIRE 1024 144 944 144
WIRE 1232 144 1104 144
WIRE 1424 144 1232 144
WIRE 1584 144 1424 144
WIRE 704 160 624 160
WIRE 1584 160 1584 144
WIRE 1232 176 1232 144
WIRE 1424 192 1424 144
WIRE -304 224 -304 128
WIRE -160 224 -160 128
WIRE 16 224 16 128
WIRE 1680 240 1664 240
WIRE 320 304 176 304
WIRE 480 304 400 304
WIRE 624 304 624 160
WIRE 624 304 544 304
WIRE 704 304 624 304
WIRE 832 304 832 144
WIRE 832 304 768 304
WIRE 1232 304 1232 256
WIRE 1296 304 1232 304
WIRE 1424 304 1424 256
WIRE 1424 304 1296 304
WIRE 176 320 176 304
WIRE 1296 336 1296 304
WIRE 1584 352 1584 320
WIRE -304 384 -304 304
WIRE -160 384 -160 304
WIRE -160 384 -304 384
WIRE 16 384 16 288
WIRE 16 384 -160 384
WIRE 288 400 256 400
WIRE -304 416 -304 384
WIRE 624 432 624 304
WIRE 688 432 624 432
WIRE 832 432 832 304
WIRE 832 432 768 432
WIRE 176 496 176 480
WIRE 288 496 288 400
WIRE 288 496 176 496
WIRE 176 528 176 496
FLAG -160 16 0
FLAG -304 416 0
FLAG 176 528 0
FLAG 1296 336 0
FLAG 1584 352 0
SYMBOL voltage -304 208 M0
SYMATTR InstName Vin
SYMATTR Value SINE(0 0.2 250)
SYMBOL voltage -160 -192 R0
SYMATTR InstName V1
SYMATTR Value 9
SYMBOL res 208 -80 R180
WINDOW 0 36 76 Left 2
WINDOW 3 36 40 Left 2
SYMATTR InstName R3
SYMATTR Value 1Meg
SYMBOL cap 320 -176 R0
SYMATTR InstName C1
SYMATTR Value 1µ
SYMBOL cap 224 112 R90
WINDOW 0 0 32 VBottom 2
WINDOW 3 32 32 VTop 2
SYMATTR InstName C2
SYMATTR Value 0.01µ
SYMBOL cap 0 288 M180
WINDOW 0 24 56 Left 2
WINDOW 3 24 8 Left 2
SYMATTR InstName C3
SYMATTR Value 0.001µ
SYMBOL res 528 -112 R0
SYMATTR InstName R4
SYMATTR Value 1Meg
SYMBOL res 432 112 R90
WINDOW 0 0 56 VBottom 2
WINDOW 3 32 56 VTop 2
SYMATTR InstName R5
SYMATTR Value 10k
SYMBOL res 304 320 R270
WINDOW 0 32 56 VTop 2
WINDOW 3 0 56 VBottom 2
SYMATTR InstName R6
SYMATTR Value 4.7k
SYMBOL IdealOpamp 736 144 M180
SYMATTR InstName OA1
SYMBOL cap 544 288 R90
WINDOW 0 0 32 VBottom 2
WINDOW 3 32 32 VTop 2
SYMATTR InstName C4
SYMATTR Value 0.047µ
SYMBOL InverseLogarithmicPotentiometer 176 400 M180
SYMATTR InstName Pilog1
SYMATTR SpiceLine Rp=500k x=0.5
SYMBOL res 784 416 R90
WINDOW 0 0 56 VBottom 2
WINDOW 3 32 56 VTop 2
SYMATTR InstName R8
SYMATTR Value 1Meg
SYMBOL cap 944 128 R90
WINDOW 0 0 32 VBottom 2
WINDOW 3 32 32 VTop 2
SYMATTR InstName C6
SYMATTR Value 1µ
SYMBOL res 1120 128 R90
WINDOW 0 0 56 VBottom 2
WINDOW 3 32 56 VTop 2
SYMATTR InstName R9
SYMATTR Value 10k
SYMBOL LogarithmicPotentiometer 1584 240 M180
SYMATTR InstName Plog2
SYMATTR SpiceLine Rp=50k x=0.7
SYMBOL res -176 208 R0
SYMATTR InstName R1
SYMATTR Value 1.5Meg
SYMBOL cap 768 288 R90
WINDOW 0 0 32 VBottom 2
WINDOW 3 32 32 VTop 2
SYMATTR InstName C5
SYMATTR Value 10p
SYMBOL res 80 -272 R90
WINDOW 0 0 56 VBottom 2
WINDOW 3 32 56 VTop 2
SYMATTR InstName R2
SYMATTR Value 1Meg
SYMBOL cap 1408 192 R0
SYMATTR InstName C7
SYMATTR Value 0.001µ
SYMBOL ExtendedSchockleyDiodeAntiParallel 1184 192 R0
SYMATTR InstName Dap1
SYMATTR SpiceLine Is=4.352n eta=1.905 Vth=25.8563m Rs=1m Rp=1Meg n=1
TEXT 824 -160 Left 2 !.wave "MXR_LTspice.wav" 16 48k V(n010)
TEXT 824 -128 Left 2 !.tran 5s uic
