Version 4
SHEET 1 2036 692
WIRE 720 -80 720 -144
WIRE 256 64 0 64
WIRE 368 64 256 64
WIRE 512 64 432 64
WIRE 720 64 720 0
WIRE 720 64 592 64
WIRE 848 64 720 64
WIRE 1008 80 912 80
WIRE 1072 80 1008 80
WIRE 1232 80 1136 80
WIRE 1408 80 1312 80
WIRE 1536 80 1408 80
WIRE 1696 80 1536 80
WIRE 1840 80 1696 80
WIRE 848 96 768 96
WIRE 1696 128 1696 80
WIRE 0 144 0 64
WIRE 256 144 256 64
WIRE 1408 160 1408 80
WIRE 1536 160 1536 80
WIRE 1840 176 1840 80
WIRE 624 240 512 240
WIRE 768 240 768 96
WIRE 768 240 688 240
WIRE 864 240 768 240
WIRE 1008 240 1008 80
WIRE 1008 240 928 240
WIRE 1952 256 1920 256
WIRE 512 288 512 240
WIRE 0 304 0 224
WIRE 256 304 256 224
WIRE 1408 304 1408 224
WIRE 1536 304 1536 208
WIRE 1696 304 1696 240
WIRE 768 384 768 240
WIRE 848 384 768 384
WIRE 1008 384 1008 240
WIRE 1008 384 928 384
WIRE 1840 384 1840 336
WIRE 512 432 512 368
WIRE 640 512 592 512
WIRE 512 640 512 592
WIRE 640 640 640 512
WIRE 640 640 512 640
WIRE 512 672 512 640
FLAG 0 304 0
FLAG 256 304 0
FLAG 512 672 0
FLAG 1408 304 0
FLAG 1536 304 0
FLAG 1696 304 0
FLAG 1840 384 0
FLAG 720 -144 0
SYMBOL voltage 0 128 M0
SYMATTR InstName Vin
SYMATTR Value wavefile=..\Input\Sine44100.wav
SYMBOL res 240 128 R0
SYMATTR InstName R1
SYMATTR Value 2.2Meg
SYMBOL cap 432 48 R90
WINDOW 0 0 32 VBottom 2
WINDOW 3 32 32 VTop 2
SYMATTR InstName C1
SYMATTR Value 0.01µ
SYMBOL res 608 48 R90
WINDOW 0 0 56 VBottom 2
WINDOW 3 32 56 VTop 2
SYMATTR InstName R2
SYMATTR Value 10k
SYMBOL res 736 16 R180
WINDOW 0 36 76 Left 2
WINDOW 3 36 40 Left 2
SYMATTR InstName R3
SYMATTR Value 1Meg
SYMBOL IdealOpamp 880 80 M180
SYMATTR InstName OA1
SYMBOL cap 688 224 R90
WINDOW 0 0 32 VBottom 2
WINDOW 3 32 32 VTop 2
SYMATTR InstName C2
SYMATTR Value 0.047µ
SYMBOL res 496 272 R0
SYMATTR InstName R4
SYMATTR Value 4.7k
SYMBOL LogarithmicPotentiometer 512 512 M180
SYMATTR InstName Plog1
SYMATTR SpiceLine Rp=500k x=0.9
SYMBOL res 944 368 R90
WINDOW 0 0 56 VBottom 2
WINDOW 3 32 56 VTop 2
SYMATTR InstName R5
SYMATTR Value 1Meg
SYMBOL cap 928 224 R90
WINDOW 0 0 32 VBottom 2
WINDOW 3 32 32 VTop 2
SYMATTR InstName C3
SYMATTR Value 25p
SYMBOL cap 1136 64 R90
WINDOW 0 0 32 VBottom 2
WINDOW 3 32 32 VTop 2
SYMATTR InstName C4
SYMATTR Value 4.7µ
SYMBOL cap 1424 224 R180
WINDOW 0 24 56 Left 2
WINDOW 3 24 8 Left 2
SYMATTR InstName C5
SYMATTR Value 0.001µ
SYMBOL res 1328 64 R90
WINDOW 0 0 56 VBottom 2
WINDOW 3 32 56 VTop 2
SYMATTR InstName R6
SYMATTR Value 10k
SYMBOL ExtendedSchockleyDiode 1552 160 M0
SYMATTR InstName D1
SYMATTR SpiceLine Is=4.352n eta=1.905 Vth=25.8563m Rs=1m Rp=1Meg
SYMBOL ExtendedSchockleyDiodeSeries 1712 240 R180
SYMATTR InstName Dser1
SYMATTR SpiceLine Is=4.352n eta=1.905 Vth=25.8563m Rs=1m Rp=1Meg n=2
SYMBOL LogarithmicPotentiometer 1840 256 M180
SYMATTR InstName Plog2
SYMATTR SpiceLine Rp=100k x=0.7
TEXT 1136 536 Left 2 !.wave "Sine44100_LTspice.wav" 16 44.1k V(n009)
TEXT 1136 568 Left 2 !.tran 5s
