Version 4
SHEET 1 3040 836
WIRE 752 -112 544 -112
WIRE 992 -112 816 -112
WIRE 2448 -112 2448 -176
WIRE 160 16 160 -64
WIRE 224 16 160 16
WIRE 352 32 288 32
WIRE 400 32 352 32
WIRE 544 32 544 -112
WIRE 544 32 480 32
WIRE 592 32 544 32
WIRE 736 32 672 32
WIRE 896 32 736 32
WIRE 2272 32 2208 32
WIRE 2448 32 2448 -32
WIRE 2448 32 2336 32
WIRE 2560 32 2448 32
WIRE -224 48 -336 48
WIRE -128 48 -224 48
WIRE 16 48 -64 48
WIRE 160 48 96 48
WIRE 224 48 160 48
WIRE 992 48 992 -112
WIRE 992 48 960 48
WIRE 1056 48 992 48
WIRE 1296 48 1056 48
WIRE 896 64 848 64
WIRE 2560 80 2560 32
WIRE 736 96 736 32
WIRE 1296 96 1296 48
WIRE -336 112 -336 48
WIRE -224 112 -224 48
WIRE 1056 144 1056 48
WIRE 1792 144 1792 48
WIRE 1904 144 1792 144
WIRE 2112 160 1968 160
WIRE 2208 160 2208 32
WIRE 2208 160 2112 160
WIRE 2768 160 2640 160
WIRE 160 176 160 48
WIRE 224 176 160 176
WIRE 352 176 352 32
WIRE 352 176 304 176
WIRE 1472 176 1376 176
WIRE 1632 176 1536 176
WIRE 1792 176 1712 176
WIRE 1904 176 1792 176
WIRE 736 208 736 160
WIRE 2208 240 2208 160
WIRE 2768 240 2768 160
WIRE -224 256 -224 192
WIRE 848 272 848 64
WIRE 1056 272 1056 224
WIRE 1056 272 848 272
WIRE -336 288 -336 192
WIRE 1792 304 1792 176
WIRE 1920 304 1792 304
WIRE 2112 304 2112 160
WIRE 2112 304 2000 304
WIRE 1056 320 1056 272
WIRE 1296 320 1296 256
WIRE 2960 320 2848 320
WIRE 2208 400 2208 304
WIRE 2272 400 2208 400
WIRE 2464 400 2352 400
WIRE 2560 400 2560 240
WIRE 2560 400 2464 400
WIRE 2960 400 2960 320
WIRE 1056 448 1056 400
WIRE 1296 448 1296 400
WIRE 1296 448 1056 448
WIRE 2464 480 2464 400
WIRE 2768 480 2768 400
WIRE 1056 496 1056 448
WIRE 1792 512 1792 304
WIRE 1904 512 1792 512
WIRE 2112 512 2112 304
WIRE 2112 512 1984 512
WIRE 2960 544 2960 480
WIRE 1056 608 1056 560
WIRE 2464 608 2464 544
WIRE 1792 624 1792 512
WIRE 1904 624 1792 624
WIRE 2112 624 2112 512
WIRE 2112 624 1968 624
FLAG 1056 608 0
FLAG 2768 480 0
FLAG 2960 544 0
FLAG 2464 608 0
FLAG 2448 -176 0
FLAG 736 208 0
FLAG -336 288 0
FLAG -224 256 0
FLAG 160 -64 0
FLAG 1792 48 0
SYMBOL res -240 96 R0
SYMATTR InstName R1
SYMATTR Value 1Meg
SYMBOL voltage -336 96 M0
SYMATTR InstName Vin
SYMATTR Value SINE(0 0.2 250)
SYMBOL cap -128 32 M90
WINDOW 0 0 32 VBottom 2
WINDOW 3 32 32 VTop 2
SYMATTR InstName C1
SYMATTR Value 0.15µ
SYMBOL res 112 32 R90
WINDOW 0 0 56 VBottom 2
WINDOW 3 32 56 VTop 2
SYMATTR InstName R2
SYMATTR Value 56k
SYMBOL IdealOpamp 256 32 M180
SYMATTR InstName OA1
SYMBOL res 320 160 R90
WINDOW 0 0 56 VBottom 2
WINDOW 3 32 56 VTop 2
SYMATTR InstName R3
SYMATTR Value 330k
SYMBOL res 496 16 R90
WINDOW 0 0 56 VBottom 2
WINDOW 3 32 56 VTop 2
SYMATTR InstName R4
SYMATTR Value 10k
SYMBOL res 688 16 R90
WINDOW 0 0 56 VBottom 2
WINDOW 3 32 56 VTop 2
SYMATTR InstName R5
SYMATTR Value 47k
SYMBOL cap 720 96 R0
SYMATTR InstName C2
SYMATTR Value 0.01µ
SYMBOL IdealOpamp 928 48 M180
SYMATTR InstName OA2
SYMBOL cap 816 -128 R90
WINDOW 0 0 32 VBottom 2
WINDOW 3 32 32 VTop 2
SYMATTR InstName C3
SYMATTR Value 4.7n
SYMBOL res 1040 128 R0
SYMATTR InstName R6
SYMATTR Value 560k
SYMBOL res 1040 304 R0
SYMATTR InstName R7
SYMATTR Value 62k
SYMBOL res 1280 304 R0
SYMATTR InstName R8
SYMATTR Value 47
SYMBOL LinearPotentiometer 1296 176 M180
SYMATTR InstName Plin1
SYMATTR SpiceLine Rp=10k x=0.5
SYMBOL cap 1040 496 R0
SYMATTR InstName C4
SYMATTR Value 10µ
SYMBOL cap 1472 160 M90
WINDOW 0 0 32 VBottom 2
WINDOW 3 32 32 VTop 2
SYMATTR InstName C5
SYMATTR Value 4.7µ
SYMBOL res 1728 160 R90
WINDOW 0 0 56 VBottom 2
WINDOW 3 32 56 VTop 2
SYMATTR InstName R9
SYMATTR Value 8.2k
SYMBOL IdealOpamp 1936 160 M180
SYMATTR InstName OA3
SYMBOL res 2000 496 R90
WINDOW 0 0 56 VBottom 2
WINDOW 3 32 56 VTop 2
SYMATTR InstName R10
SYMATTR Value 470k
SYMBOL cap 1968 608 R90
WINDOW 0 0 32 VBottom 2
WINDOW 3 32 32 VTop 2
SYMATTR InstName C6
SYMATTR Value 150p
SYMBOL cap 2192 240 R0
SYMATTR InstName C7
SYMATTR Value 1µ
SYMBOL cap 2272 16 M90
WINDOW 0 0 32 VBottom 2
WINDOW 3 32 32 VTop 2
SYMATTR InstName C8
SYMATTR Value 0.1µ
SYMBOL LinearPotentiometer 2560 160 M180
SYMATTR InstName Plin2
SYMATTR SpiceLine Rp=10k x=0.5
SYMBOL res 2368 384 R90
WINDOW 0 0 56 VBottom 2
WINDOW 3 32 56 VTop 2
SYMATTR InstName R11
SYMATTR Value 5.6k
SYMBOL cap 2448 480 R0
SYMATTR InstName C9
SYMATTR Value 0.12µ
SYMBOL res 2432 -128 R0
SYMATTR InstName R12
SYMATTR Value 1.2k
SYMBOL LogarithmicPotentiometer 2768 320 M180
SYMATTR InstName Plog3
SYMATTR SpiceLine Rp=50k x=0.5
SYMBOL res 2944 384 R0
SYMATTR InstName R13
SYMATTR Value 100k
SYMBOL ExtendedSchockleyDiodeAntiParallel 1936 352 R270
WINDOW 0 96 24 VTop 2
SYMATTR InstName Dap1
SYMATTR SpiceLine Is=4.352n eta=1.905 Vth=25.8563m Rs=1m Rp=1Meg n=3
TEXT 176 440 Left 2 !.tran 5s uic
TEXT 176 472 Left 2 !.wave "example1_LTspice.wav" 16 48k V(n016)
